Sun Aug  4 19:43:38 JST 2024
DEPTH = 1024;
WIDTH = 8;

ADDRESS_RADIX = HEX;
DATA_RADIX = HEX;

CONTENT
  BEGIN
    0 : 0 ;
    1 : 1 ;
    2 : 1 ;
    3 : 1 ;
    4 : 2 ;
    5 : 2 ;
    6 : 2 ;
    7 : 3 ;
    8 : 3 ;
    9 : 3 ;
    A : 4 ;
    B : 4 ;
    C : 4 ;
    D : 5 ;
    E : 5 ;
    F : 6 ;
    10 : 6 ;
    11 : 6 ;
    12 : 7 ;
    13 : 7 ;
    14 : 7 ;
    15 : 8 ;
    16 : 8 ;
    17 : 8 ;
    18 : 9 ;
    19 : 9 ;
    1A : 9 ;
    1B : A ;
    1C : A ;
    1D : A ;
    1E : B ;
    1F : B ;
    20 : C ;
    21 : C ;
    22 : C ;
    23 : D ;
    24 : D ;
    25 : D ;
    26 : E ;
    27 : E ;
    28 : E ;
    29 : F ;
    2A : F ;
    2B : F ;
    2C : 10 ;
    2D : 10 ;
    2E : 10 ;
    2F : 11 ;
    30 : 11 ;
    31 : 11 ;
    32 : 12 ;
    33 : 12 ;
    34 : 12 ;
    35 : 13 ;
    36 : 13 ;
    37 : 13 ;
    38 : 14 ;
    39 : 14 ;
    3A : 15 ;
    3B : 15 ;
    3C : 15 ;
    3D : 16 ;
    3E : 16 ;
    3F : 16 ;
    40 : 17 ;
    41 : 17 ;
    42 : 17 ;
    43 : 18 ;
    44 : 18 ;
    45 : 18 ;
    46 : 19 ;
    47 : 19 ;
    48 : 19 ;
    49 : 1A ;
    4A : 1A ;
    4B : 1A ;
    4C : 1B ;
    4D : 1B ;
    4E : 1B ;
    4F : 1C ;
    50 : 1C ;
    51 : 1C ;
    52 : 1D ;
    53 : 1D ;
    54 : 1D ;
    55 : 1E ;
    56 : 1E ;
    57 : 1E ;
    58 : 1F ;
    59 : 1F ;
    5A : 1F ;
    5B : 20 ;
    5C : 20 ;
    5D : 20 ;
    5E : 21 ;
    5F : 21 ;
    60 : 21 ;
    61 : 22 ;
    62 : 22 ;
    63 : 22 ;
    64 : 23 ;
    65 : 23 ;
    66 : 23 ;
    67 : 24 ;
    68 : 24 ;
    69 : 24 ;
    6A : 25 ;
    6B : 25 ;
    6C : 25 ;
    6D : 26 ;
    6E : 26 ;
    6F : 26 ;
    70 : 26 ;
    71 : 27 ;
    72 : 27 ;
    73 : 27 ;
    74 : 28 ;
    75 : 28 ;
    76 : 28 ;
    77 : 29 ;
    78 : 29 ;
    79 : 29 ;
    7A : 2A ;
    7B : 2A ;
    7C : 2A ;
    7D : 2B ;
    7E : 2B ;
    7F : 2B ;
    80 : 2C ;
    81 : 2C ;
    82 : 2C ;
    83 : 2D ;
    84 : 2D ;
    85 : 2D ;
    86 : 2E ;
    87 : 2E ;
    88 : 2E ;
    89 : 2F ;
    8A : 2F ;
    8B : 2F ;
    8C : 2F ;
    8D : 30 ;
    8E : 30 ;
    8F : 30 ;
    90 : 31 ;
    91 : 31 ;
    92 : 31 ;
    93 : 32 ;
    94 : 32 ;
    95 : 32 ;
    96 : 33 ;
    97 : 33 ;
    98 : 33 ;
    99 : 34 ;
    9A : 34 ;
    9B : 34 ;
    9C : 35 ;
    9D : 35 ;
    9E : 35 ;
    9F : 35 ;
    A0 : 36 ;
    A1 : 36 ;
    A2 : 36 ;
    A3 : 37 ;
    A4 : 37 ;
    A5 : 37 ;
    A6 : 38 ;
    A7 : 38 ;
    A8 : 38 ;
    A9 : 39 ;
    AA : 39 ;
    AB : 39 ;
    AC : 39 ;
    AD : 3A ;
    AE : 3A ;
    AF : 3A ;
    B0 : 3B ;
    B1 : 3B ;
    B2 : 3B ;
    B3 : 3C ;
    B4 : 3C ;
    B5 : 3C ;
    B6 : 3D ;
    B7 : 3D ;
    B8 : 3D ;
    B9 : 3D ;
    BA : 3E ;
    BB : 3E ;
    BC : 3E ;
    BD : 3F ;
    BE : 3F ;
    BF : 3F ;
    C0 : 40 ;
    C1 : 40 ;
    C2 : 40 ;
    C3 : 41 ;
    C4 : 41 ;
    C5 : 41 ;
    C6 : 41 ;
    C7 : 42 ;
    C8 : 42 ;
    C9 : 42 ;
    CA : 43 ;
    CB : 43 ;
    CC : 43 ;
    CD : 44 ;
    CE : 44 ;
    CF : 44 ;
    D0 : 44 ;
    D1 : 45 ;
    D2 : 45 ;
    D3 : 45 ;
    D4 : 46 ;
    D5 : 46 ;
    D6 : 46 ;
    D7 : 47 ;
    D8 : 47 ;
    D9 : 47 ;
    DA : 47 ;
    DB : 48 ;
    DC : 48 ;
    DD : 48 ;
    DE : 49 ;
    DF : 49 ;
    E0 : 49 ;
    E1 : 4A ;
    E2 : 4A ;
    E3 : 4A ;
    E4 : 4A ;
    E5 : 4B ;
    E6 : 4B ;
    E7 : 4B ;
    E8 : 4C ;
    E9 : 4C ;
    EA : 4C ;
    EB : 4C ;
    EC : 4D ;
    ED : 4D ;
    EE : 4D ;
    EF : 4E ;
    F0 : 4E ;
    F1 : 4E ;
    F2 : 4E ;
    F3 : 4F ;
    F4 : 4F ;
    F5 : 4F ;
    F6 : 50 ;
    F7 : 50 ;
    F8 : 50 ;
    F9 : 51 ;
    FA : 51 ;
    FB : 51 ;
    FC : 51 ;
    FD : 52 ;
    FE : 52 ;
    FF : 52 ;
    100 : 53 ;
    101 : 53 ;
    102 : 53 ;
    103 : 53 ;
    104 : 54 ;
    105 : 54 ;
    106 : 54 ;
    107 : 55 ;
    108 : 55 ;
    109 : 55 ;
    10A : 55 ;
    10B : 56 ;
    10C : 56 ;
    10D : 56 ;
    10E : 57 ;
    10F : 57 ;
    110 : 57 ;
    111 : 57 ;
    112 : 58 ;
    113 : 58 ;
    114 : 58 ;
    115 : 59 ;
    116 : 59 ;
    117 : 59 ;
    118 : 59 ;
    119 : 5A ;
    11A : 5A ;
    11B : 5A ;
    11C : 5B ;
    11D : 5B ;
    11E : 5B ;
    11F : 5B ;
    120 : 5C ;
    121 : 5C ;
    122 : 5C ;
    123 : 5D ;
    124 : 5D ;
    125 : 5D ;
    126 : 5D ;
    127 : 5E ;
    128 : 5E ;
    129 : 5E ;
    12A : 5E ;
    12B : 5F ;
    12C : 5F ;
    12D : 5F ;
    12E : 60 ;
    12F : 60 ;
    130 : 60 ;
    131 : 60 ;
    132 : 61 ;
    133 : 61 ;
    134 : 61 ;
    135 : 62 ;
    136 : 62 ;
    137 : 62 ;
    138 : 62 ;
    139 : 63 ;
    13A : 63 ;
    13B : 63 ;
    13C : 63 ;
    13D : 64 ;
    13E : 64 ;
    13F : 64 ;
    140 : 65 ;
    141 : 65 ;
    142 : 65 ;
    143 : 65 ;
    144 : 66 ;
    145 : 66 ;
    146 : 66 ;
    147 : 66 ;
    148 : 67 ;
    149 : 67 ;
    14A : 67 ;
    14B : 68 ;
    14C : 68 ;
    14D : 68 ;
    14E : 68 ;
    14F : 69 ;
    150 : 69 ;
    151 : 69 ;
    152 : 69 ;
    153 : 6A ;
    154 : 6A ;
    155 : 6A ;
    156 : 6B ;
    157 : 6B ;
    158 : 6B ;
    159 : 6B ;
    15A : 6C ;
    15B : 6C ;
    15C : 6C ;
    15D : 6C ;
    15E : 6D ;
    15F : 6D ;
    160 : 6D ;
    161 : 6E ;
    162 : 6E ;
    163 : 6E ;
    164 : 6E ;
    165 : 6F ;
    166 : 6F ;
    167 : 6F ;
    168 : 6F ;
    169 : 70 ;
    16A : 70 ;
    16B : 70 ;
    16C : 70 ;
    16D : 71 ;
    16E : 71 ;
    16F : 71 ;
    170 : 72 ;
    171 : 72 ;
    172 : 72 ;
    173 : 72 ;
    174 : 73 ;
    175 : 73 ;
    176 : 73 ;
    177 : 73 ;
    178 : 74 ;
    179 : 74 ;
    17A : 74 ;
    17B : 74 ;
    17C : 75 ;
    17D : 75 ;
    17E : 75 ;
    17F : 75 ;
    180 : 76 ;
    181 : 76 ;
    182 : 76 ;
    183 : 77 ;
    184 : 77 ;
    185 : 77 ;
    186 : 77 ;
    187 : 78 ;
    188 : 78 ;
    189 : 78 ;
    18A : 78 ;
    18B : 79 ;
    18C : 79 ;
    18D : 79 ;
    18E : 79 ;
    18F : 7A ;
    190 : 7A ;
    191 : 7A ;
    192 : 7A ;
    193 : 7B ;
    194 : 7B ;
    195 : 7B ;
    196 : 7B ;
    197 : 7C ;
    198 : 7C ;
    199 : 7C ;
    19A : 7D ;
    19B : 7D ;
    19C : 7D ;
    19D : 7D ;
    19E : 7E ;
    19F : 7E ;
    1A0 : 7E ;
    1A1 : 7E ;
    1A2 : 7F ;
    1A3 : 7F ;
    1A4 : 7F ;
    1A5 : 7F ;
    1A6 : 80 ;
    1A7 : 80 ;
    1A8 : 80 ;
    1A9 : 80 ;
    1AA : 81 ;
    1AB : 81 ;
    1AC : 81 ;
    1AD : 81 ;
    1AE : 82 ;
    1AF : 82 ;
    1B0 : 82 ;
    1B1 : 82 ;
    1B2 : 83 ;
    1B3 : 83 ;
    1B4 : 83 ;
    1B5 : 83 ;
    1B6 : 84 ;
    1B7 : 84 ;
    1B8 : 84 ;
    1B9 : 84 ;
    1BA : 85 ;
    1BB : 85 ;
    1BC : 85 ;
    1BD : 85 ;
    1BE : 86 ;
    1BF : 86 ;
    1C0 : 86 ;
    1C1 : 86 ;
    1C2 : 87 ;
    1C3 : 87 ;
    1C4 : 87 ;
    1C5 : 87 ;
    1C6 : 88 ;
    1C7 : 88 ;
    1C8 : 88 ;
    1C9 : 88 ;
    1CA : 89 ;
    1CB : 89 ;
    1CC : 89 ;
    1CD : 89 ;
    1CE : 8A ;
    1CF : 8A ;
    1D0 : 8A ;
    1D1 : 8A ;
    1D2 : 8B ;
    1D3 : 8B ;
    1D4 : 8B ;
    1D5 : 8B ;
    1D6 : 8C ;
    1D7 : 8C ;
    1D8 : 8C ;
    1D9 : 8C ;
    1DA : 8D ;
    1DB : 8D ;
    1DC : 8D ;
    1DD : 8D ;
    1DE : 8E ;
    1DF : 8E ;
    1E0 : 8E ;
    1E1 : 8E ;
    1E2 : 8F ;
    1E3 : 8F ;
    1E4 : 8F ;
    1E5 : 8F ;
    1E6 : 90 ;
    1E7 : 90 ;
    1E8 : 90 ;
    1E9 : 90 ;
    1EA : 91 ;
    1EB : 91 ;
    1EC : 91 ;
    1ED : 91 ;
    1EE : 92 ;
    1EF : 92 ;
    1F0 : 92 ;
    1F1 : 92 ;
    1F2 : 92 ;
    1F3 : 93 ;
    1F4 : 93 ;
    1F5 : 93 ;
    1F6 : 93 ;
    1F7 : 94 ;
    1F8 : 94 ;
    1F9 : 94 ;
    1FA : 94 ;
    1FB : 95 ;
    1FC : 95 ;
    1FD : 95 ;
    1FE : 95 ;
    1FF : 96 ;
    200 : 96 ;
    201 : 96 ;
    202 : 96 ;
    203 : 97 ;
    204 : 97 ;
    205 : 97 ;
    206 : 97 ;
    207 : 98 ;
    208 : 98 ;
    209 : 98 ;
    20A : 98 ;
    20B : 99 ;
    20C : 99 ;
    20D : 99 ;
    20E : 99 ;
    20F : 99 ;
    210 : 9A ;
    211 : 9A ;
    212 : 9A ;
    213 : 9A ;
    214 : 9B ;
    215 : 9B ;
    216 : 9B ;
    217 : 9B ;
    218 : 9C ;
    219 : 9C ;
    21A : 9C ;
    21B : 9C ;
    21C : 9D ;
    21D : 9D ;
    21E : 9D ;
    21F : 9D ;
    220 : 9D ;
    221 : 9E ;
    222 : 9E ;
    223 : 9E ;
    224 : 9E ;
    225 : 9F ;
    226 : 9F ;
    227 : 9F ;
    228 : 9F ;
    229 : A0 ;
    22A : A0 ;
    22B : A0 ;
    22C : A0 ;
    22D : A1 ;
    22E : A1 ;
    22F : A1 ;
    230 : A1 ;
    231 : A1 ;
    232 : A2 ;
    233 : A2 ;
    234 : A2 ;
    235 : A2 ;
    236 : A3 ;
    237 : A3 ;
    238 : A3 ;
    239 : A3 ;
    23A : A4 ;
    23B : A4 ;
    23C : A4 ;
    23D : A4 ;
    23E : A4 ;
    23F : A5 ;
    240 : A5 ;
    241 : A5 ;
    242 : A5 ;
    243 : A6 ;
    244 : A6 ;
    245 : A6 ;
    246 : A6 ;
    247 : A7 ;
    248 : A7 ;
    249 : A7 ;
    24A : A7 ;
    24B : A7 ;
    24C : A8 ;
    24D : A8 ;
    24E : A8 ;
    24F : A8 ;
    250 : A9 ;
    251 : A9 ;
    252 : A9 ;
    253 : A9 ;
    254 : AA ;
    255 : AA ;
    256 : AA ;
    257 : AA ;
    258 : AA ;
    259 : AB ;
    25A : AB ;
    25B : AB ;
    25C : AB ;
    25D : AC ;
    25E : AC ;
    25F : AC ;
    260 : AC ;
    261 : AC ;
    262 : AD ;
    263 : AD ;
    264 : AD ;
    265 : AD ;
    266 : AE ;
    267 : AE ;
    268 : AE ;
    269 : AE ;
    26A : AF ;
    26B : AF ;
    26C : AF ;
    26D : AF ;
    26E : AF ;
    26F : B0 ;
    270 : B0 ;
    271 : B0 ;
    272 : B0 ;
    273 : B1 ;
    274 : B1 ;
    275 : B1 ;
    276 : B1 ;
    277 : B1 ;
    278 : B2 ;
    279 : B2 ;
    27A : B2 ;
    27B : B2 ;
    27C : B3 ;
    27D : B3 ;
    27E : B3 ;
    27F : B3 ;
    280 : B3 ;
    281 : B4 ;
    282 : B4 ;
    283 : B4 ;
    284 : B4 ;
    285 : B5 ;
    286 : B5 ;
    287 : B5 ;
    288 : B5 ;
    289 : B5 ;
    28A : B6 ;
    28B : B6 ;
    28C : B6 ;
    28D : B6 ;
    28E : B7 ;
    28F : B7 ;
    290 : B7 ;
    291 : B7 ;
    292 : B7 ;
    293 : B8 ;
    294 : B8 ;
    295 : B8 ;
    296 : B8 ;
    297 : B8 ;
    298 : B9 ;
    299 : B9 ;
    29A : B9 ;
    29B : B9 ;
    29C : BA ;
    29D : BA ;
    29E : BA ;
    29F : BA ;
    2A0 : BA ;
    2A1 : BB ;
    2A2 : BB ;
    2A3 : BB ;
    2A4 : BB ;
    2A5 : BC ;
    2A6 : BC ;
    2A7 : BC ;
    2A8 : BC ;
    2A9 : BC ;
    2AA : BD ;
    2AB : BD ;
    2AC : BD ;
    2AD : BD ;
    2AE : BD ;
    2AF : BE ;
    2B0 : BE ;
    2B1 : BE ;
    2B2 : BE ;
    2B3 : BF ;
    2B4 : BF ;
    2B5 : BF ;
    2B6 : BF ;
    2B7 : BF ;
    2B8 : C0 ;
    2B9 : C0 ;
    2BA : C0 ;
    2BB : C0 ;
    2BC : C1 ;
    2BD : C1 ;
    2BE : C1 ;
    2BF : C1 ;
    2C0 : C1 ;
    2C1 : C2 ;
    2C2 : C2 ;
    2C3 : C2 ;
    2C4 : C2 ;
    2C5 : C2 ;
    2C6 : C3 ;
    2C7 : C3 ;
    2C8 : C3 ;
    2C9 : C3 ;
    2CA : C3 ;
    2CB : C4 ;
    2CC : C4 ;
    2CD : C4 ;
    2CE : C4 ;
    2CF : C5 ;
    2D0 : C5 ;
    2D1 : C5 ;
    2D2 : C5 ;
    2D3 : C5 ;
    2D4 : C6 ;
    2D5 : C6 ;
    2D6 : C6 ;
    2D7 : C6 ;
    2D8 : C6 ;
    2D9 : C7 ;
    2DA : C7 ;
    2DB : C7 ;
    2DC : C7 ;
    2DD : C8 ;
    2DE : C8 ;
    2DF : C8 ;
    2E0 : C8 ;
    2E1 : C8 ;
    2E2 : C9 ;
    2E3 : C9 ;
    2E4 : C9 ;
    2E5 : C9 ;
    2E6 : C9 ;
    2E7 : CA ;
    2E8 : CA ;
    2E9 : CA ;
    2EA : CA ;
    2EB : CA ;
    2EC : CB ;
    2ED : CB ;
    2EE : CB ;
    2EF : CB ;
    2F0 : CB ;
    2F1 : CC ;
    2F2 : CC ;
    2F3 : CC ;
    2F4 : CC ;
    2F5 : CD ;
    2F6 : CD ;
    2F7 : CD ;
    2F8 : CD ;
    2F9 : CD ;
    2FA : CE ;
    2FB : CE ;
    2FC : CE ;
    2FD : CE ;
    2FE : CE ;
    2FF : CF ;
    300 : CF ;
    301 : CF ;
    302 : CF ;
    303 : CF ;
    304 : D0 ;
    305 : D0 ;
    306 : D0 ;
    307 : D0 ;
    308 : D0 ;
    309 : D1 ;
    30A : D1 ;
    30B : D1 ;
    30C : D1 ;
    30D : D1 ;
    30E : D2 ;
    30F : D2 ;
    310 : D2 ;
    311 : D2 ;
    312 : D2 ;
    313 : D3 ;
    314 : D3 ;
    315 : D3 ;
    316 : D3 ;
    317 : D3 ;
    318 : D4 ;
    319 : D4 ;
    31A : D4 ;
    31B : D4 ;
    31C : D5 ;
    31D : D5 ;
    31E : D5 ;
    31F : D5 ;
    320 : D5 ;
    321 : D6 ;
    322 : D6 ;
    323 : D6 ;
    324 : D6 ;
    325 : D6 ;
    326 : D7 ;
    327 : D7 ;
    328 : D7 ;
    329 : D7 ;
    32A : D7 ;
    32B : D8 ;
    32C : D8 ;
    32D : D8 ;
    32E : D8 ;
    32F : D8 ;
    330 : D9 ;
    331 : D9 ;
    332 : D9 ;
    333 : D9 ;
    334 : D9 ;
    335 : DA ;
    336 : DA ;
    337 : DA ;
    338 : DA ;
    339 : DA ;
    33A : DB ;
    33B : DB ;
    33C : DB ;
    33D : DB ;
    33E : DB ;
    33F : DC ;
    340 : DC ;
    341 : DC ;
    342 : DC ;
    343 : DC ;
    344 : DD ;
    345 : DD ;
    346 : DD ;
    347 : DD ;
    348 : DD ;
    349 : DE ;
    34A : DE ;
    34B : DE ;
    34C : DE ;
    34D : DE ;
    34E : DF ;
    34F : DF ;
    350 : DF ;
    351 : DF ;
    352 : DF ;
    353 : E0 ;
    354 : E0 ;
    355 : E0 ;
    356 : E0 ;
    357 : E0 ;
    358 : E0 ;
    359 : E1 ;
    35A : E1 ;
    35B : E1 ;
    35C : E1 ;
    35D : E1 ;
    35E : E2 ;
    35F : E2 ;
    360 : E2 ;
    361 : E2 ;
    362 : E2 ;
    363 : E3 ;
    364 : E3 ;
    365 : E3 ;
    366 : E3 ;
    367 : E3 ;
    368 : E4 ;
    369 : E4 ;
    36A : E4 ;
    36B : E4 ;
    36C : E4 ;
    36D : E5 ;
    36E : E5 ;
    36F : E5 ;
    370 : E5 ;
    371 : E5 ;
    372 : E6 ;
    373 : E6 ;
    374 : E6 ;
    375 : E6 ;
    376 : E6 ;
    377 : E7 ;
    378 : E7 ;
    379 : E7 ;
    37A : E7 ;
    37B : E7 ;
    37C : E7 ;
    37D : E8 ;
    37E : E8 ;
    37F : E8 ;
    380 : E8 ;
    381 : E8 ;
    382 : E9 ;
    383 : E9 ;
    384 : E9 ;
    385 : E9 ;
    386 : E9 ;
    387 : EA ;
    388 : EA ;
    389 : EA ;
    38A : EA ;
    38B : EA ;
    38C : EB ;
    38D : EB ;
    38E : EB ;
    38F : EB ;
    390 : EB ;
    391 : EC ;
    392 : EC ;
    393 : EC ;
    394 : EC ;
    395 : EC ;
    396 : EC ;
    397 : ED ;
    398 : ED ;
    399 : ED ;
    39A : ED ;
    39B : ED ;
    39C : EE ;
    39D : EE ;
    39E : EE ;
    39F : EE ;
    3A0 : EE ;
    3A1 : EF ;
    3A2 : EF ;
    3A3 : EF ;
    3A4 : EF ;
    3A5 : EF ;
    3A6 : EF ;
    3A7 : F0 ;
    3A8 : F0 ;
    3A9 : F0 ;
    3AA : F0 ;
    3AB : F0 ;
    3AC : F1 ;
    3AD : F1 ;
    3AE : F1 ;
    3AF : F1 ;
    3B0 : F1 ;
    3B1 : F2 ;
    3B2 : F2 ;
    3B3 : F2 ;
    3B4 : F2 ;
    3B5 : F2 ;
    3B6 : F3 ;
    3B7 : F3 ;
    3B8 : F3 ;
    3B9 : F3 ;
    3BA : F3 ;
    3BB : F3 ;
    3BC : F4 ;
    3BD : F4 ;
    3BE : F4 ;
    3BF : F4 ;
    3C0 : F4 ;
    3C1 : F5 ;
    3C2 : F5 ;
    3C3 : F5 ;
    3C4 : F5 ;
    3C5 : F5 ;
    3C6 : F5 ;
    3C7 : F6 ;
    3C8 : F6 ;
    3C9 : F6 ;
    3CA : F6 ;
    3CB : F6 ;
    3CC : F7 ;
    3CD : F7 ;
    3CE : F7 ;
    3CF : F7 ;
    3D0 : F7 ;
    3D1 : F8 ;
    3D2 : F8 ;
    3D3 : F8 ;
    3D4 : F8 ;
    3D5 : F8 ;
    3D6 : F8 ;
    3D7 : F9 ;
    3D8 : F9 ;
    3D9 : F9 ;
    3DA : F9 ;
    3DB : F9 ;
    3DC : FA ;
    3DD : FA ;
    3DE : FA ;
    3DF : FA ;
    3E0 : FA ;
    3E1 : FA ;
    3E2 : FB ;
    3E3 : FB ;
    3E4 : FB ;
    3E5 : FB ;
    3E6 : FB ;
    3E7 : FC ;
    3E8 : FC ;
    3E9 : FC ;
    3EA : FC ;
    3EB : FC ;
    3EC : FC ;
    3ED : FD ;
    3EE : FD ;
    3EF : FD ;
    3F0 : FD ;
    3F1 : FD ;
    3F2 : FE ;
    3F3 : FE ;
    3F4 : FE ;
    3F5 : FE ;
    3F6 : FE ;
    3F7 : FE ;
    3F8 : FF ;
    3F9 : FF ;
    3FA : FF ;
    3FB : FF ;
    3FC : FF ;
    3FD : 0 ;
    3FE : 0 ;
    3FF : 0 ;
  END;
